*SPEF "ieee 1481-1999"
*DESIGN "prob240_baseline"
*DATE "18:51:59 Tuesday April 28, 2026"
*VENDOR "The OpenROAD Project"
*PROGRAM "OpenROAD"
*VERSION "26Q1-1788-gdc4da4fafa"
*DESIGN_FLOW "NAME_SCOPE LOCAL" "PIN_CAP NONE"
*DIVIDER /
*DELIMITER :
*BUS_DELIMITER []
*T_UNIT 1 NS
*C_UNIT 1 PF
*R_UNIT 1 OHM
*L_UNIT 1 HENRY

*NAME_MAP
*1 _00_
*2 _01_
*3 _02_
*4 _03_
*5 _04_
*6 _05_
*7 _06_
*9 _08_
*10 _09_
*11 _10_
*12 _11_
*13 _12_
*14 _13_
*15 _14_
*16 _15_
*17 _16_
*18 _17_
*19 _18_
*20 _19_
*21 _20_
*22 _21_
*23 _22_
*24 _23_
*25 _24_
*26 _25_
*27 _26_
*28 _27_
*29 _28_
*30 _29_
*31 _30_
*32 _31_
*35 clk
*36 net33
*37 net34
*38 net35
*39 net36
*40 net37
*41 net38
*42 net39
*43 net40
*44 obs_valid
*45 obs_y[0]
*46 obs_y[10]
*47 obs_y[11]
*48 obs_y[12]
*49 obs_y[13]
*50 obs_y[14]
*51 obs_y[15]
*52 obs_y[16]
*53 obs_y[17]
*54 obs_y[18]
*55 obs_y[19]
*56 obs_y[1]
*57 obs_y[20]
*58 obs_y[21]
*59 obs_y[22]
*60 obs_y[23]
*61 obs_y[24]
*62 obs_y[25]
*63 obs_y[26]
*64 obs_y[27]
*65 obs_y[28]
*66 obs_y[29]
*67 obs_y[2]
*68 obs_y[30]
*69 obs_y[31]
*70 obs_y[3]
*71 obs_y[4]
*72 obs_y[5]
*73 obs_y[6]
*74 obs_y[7]
*75 obs_y[8]
*76 obs_y[9]
*77 u_top\.tag_counter\[0\]
*78 u_top\.tag_counter\[1\]
*79 u_top\.tag_counter\[2\]
*80 u_top\.tag_counter\[3\]
*81 u_top\.tag_counter\[4\]
*82 u_top\.tag_counter\[5\]
*83 u_top\.tag_counter\[6\]
*84 u_top\.tag_counter\[7\]
*106 clknet_1_1__leaf_clk
*107 clknet_1_0__leaf_clk
*108 clknet_0_clk
*109 obs_tag[7]
*110 obs_tag[6]
*111 obs_tag[5]
*112 obs_tag[4]
*113 obs_tag[3]
*114 obs_tag[2]
*115 obs_tag[1]
*116 obs_tag[0]
*117 FILLER_0_161
*118 _35_
*119 _36_
*120 _37_
*121 _38_
*122 _39_
*123 _40_
*124 _41_
*125 _42_
*126 _43_
*127 _44_
*128 _45_
*129 _46_
*130 _47_
*131 _48_
*132 PHY_EDGE_ROW_0_Right_0
*133 _51__33
*134 FILLER_0_158
*135 FILLER_0_155
*136 FILLER_0_152
*137 FILLER_0_149
*138 FILLER_0_146
*139 FILLER_0_143
*140 FILLER_0_141
*141 FILLER_0_137
*142 FILLER_0_134
*143 FILLER_0_131
*144 FILLER_0_129
*145 FILLER_0_125
*146 FILLER_0_122
*147 FILLER_0_120
*148 FILLER_0_112
*149 FILLER_0_96
*150 FILLER_0_93
*151 FILLER_0_89
*152 FILLER_0_81
*153 FILLER_0_65
*154 FILLER_0_33
*155 FILLER_0_1
*156 clkbuf_1_1__f_clk
*157 clkbuf_1_0__f_clk
*158 clkbuf_0_clk
*159 output41
*160 output40
*161 output39
*162 output38
*163 output37
*164 output36
*165 output35
*166 output34
*167 u_top\.out_tag\[0\]\$_DFF_P_
*168 u_top\.out_tag\[1\]\$_DFF_P_
*169 u_top\.out_tag\[2\]\$_DFF_P_
*170 u_top\.out_tag\[3\]\$_DFF_P_
*171 u_top\.out_tag\[4\]\$_DFF_P_
*172 u_top\.out_tag\[5\]\$_DFF_P_
*173 u_top\.out_tag\[6\]\$_DFF_P_
*174 u_top\.out_tag\[7\]\$_DFF_P_
*175 u_top\.tag_counter\[0\]\$_DFF_P_
*176 u_top\.tag_counter\[1\]\$_DFF_P_
*177 u_top\.tag_counter\[2\]\$_DFF_P_
*178 u_top\.tag_counter\[3\]\$_DFF_P_
*179 u_top\.tag_counter\[4\]\$_DFF_P_
*180 u_top\.tag_counter\[5\]\$_DFF_P_
*181 u_top\.tag_counter\[6\]\$_DFF_P_
*182 u_top\.tag_counter\[7\]\$_DFF_P_
*183 _52__1
*184 _53__2
*185 _54__3
*186 _55__4
*187 _56__5
*188 _57__6
*189 _58__7
*190 _59__8
*191 _60__9
*192 _61__10
*193 _62__11
*194 _63__12
*195 _64__13
*196 _65__14
*197 _66__15
*198 _67__16
*199 _68__17
*200 _69__18
*201 _70__19
*202 _71__20
*203 _72__21
*204 _73__22
*205 _74__23
*206 _75__24
*207 _76__25
*208 _77__26
*209 _78__27
*210 _79__28
*211 _80__29
*212 _81__30
*213 _82__31
*214 _83__32
*215 PHY_EDGE_ROW_1_Right_1
*216 PHY_EDGE_ROW_2_Right_2
*217 PHY_EDGE_ROW_3_Right_3
*218 PHY_EDGE_ROW_4_Right_4
*219 PHY_EDGE_ROW_5_Right_5
*220 PHY_EDGE_ROW_6_Right_6
*221 PHY_EDGE_ROW_7_Right_7
*222 PHY_EDGE_ROW_8_Right_8
*223 PHY_EDGE_ROW_9_Right_9
*224 PHY_EDGE_ROW_10_Right_10
*225 PHY_EDGE_ROW_11_Right_11
*226 PHY_EDGE_ROW_12_Right_12
*227 PHY_EDGE_ROW_13_Right_13
*228 PHY_EDGE_ROW_14_Right_14
*229 PHY_EDGE_ROW_15_Right_15
*230 PHY_EDGE_ROW_16_Right_16
*231 PHY_EDGE_ROW_17_Right_17
*232 PHY_EDGE_ROW_18_Right_18
*233 PHY_EDGE_ROW_19_Right_19
*234 PHY_EDGE_ROW_20_Right_20
*235 PHY_EDGE_ROW_21_Right_21
*236 PHY_EDGE_ROW_22_Right_22
*237 PHY_EDGE_ROW_23_Right_23
*238 PHY_EDGE_ROW_24_Right_24
*239 PHY_EDGE_ROW_25_Right_25
*240 PHY_EDGE_ROW_26_Right_26
*241 PHY_EDGE_ROW_27_Right_27
*242 PHY_EDGE_ROW_28_Right_28
*243 PHY_EDGE_ROW_29_Right_29
*244 PHY_EDGE_ROW_30_Right_30
*245 PHY_EDGE_ROW_31_Right_31
*246 PHY_EDGE_ROW_32_Right_32
*247 PHY_EDGE_ROW_33_Right_33
*248 PHY_EDGE_ROW_34_Right_34
*249 PHY_EDGE_ROW_35_Right_35
*250 PHY_EDGE_ROW_36_Right_36
*251 PHY_EDGE_ROW_37_Right_37
*252 PHY_EDGE_ROW_38_Right_38
*253 PHY_EDGE_ROW_39_Right_39
*254 PHY_EDGE_ROW_40_Right_40
*255 PHY_EDGE_ROW_41_Right_41
*256 PHY_EDGE_ROW_42_Right_42
*257 PHY_EDGE_ROW_43_Right_43
*258 PHY_EDGE_ROW_44_Right_44
*259 PHY_EDGE_ROW_45_Right_45
*260 PHY_EDGE_ROW_46_Right_46
*261 PHY_EDGE_ROW_47_Right_47
*262 PHY_EDGE_ROW_48_Right_48
*263 PHY_EDGE_ROW_49_Right_49
*264 PHY_EDGE_ROW_50_Right_50
*265 PHY_EDGE_ROW_51_Right_51
*266 PHY_EDGE_ROW_52_Right_52
*267 PHY_EDGE_ROW_53_Right_53
*268 PHY_EDGE_ROW_54_Right_54
*269 PHY_EDGE_ROW_55_Right_55
*270 PHY_EDGE_ROW_0_Left_56
*271 PHY_EDGE_ROW_1_Left_57
*272 PHY_EDGE_ROW_2_Left_58
*273 PHY_EDGE_ROW_3_Left_59
*274 PHY_EDGE_ROW_4_Left_60
*275 PHY_EDGE_ROW_5_Left_61
*276 PHY_EDGE_ROW_6_Left_62
*277 PHY_EDGE_ROW_7_Left_63
*278 PHY_EDGE_ROW_8_Left_64
*279 PHY_EDGE_ROW_9_Left_65
*280 PHY_EDGE_ROW_10_Left_66
*281 PHY_EDGE_ROW_11_Left_67
*282 PHY_EDGE_ROW_12_Left_68
*283 PHY_EDGE_ROW_13_Left_69
*284 PHY_EDGE_ROW_14_Left_70
*285 PHY_EDGE_ROW_15_Left_71
*286 PHY_EDGE_ROW_16_Left_72
*287 PHY_EDGE_ROW_17_Left_73
*288 PHY_EDGE_ROW_18_Left_74
*289 PHY_EDGE_ROW_19_Left_75
*290 PHY_EDGE_ROW_20_Left_76
*291 PHY_EDGE_ROW_21_Left_77
*292 PHY_EDGE_ROW_22_Left_78
*293 PHY_EDGE_ROW_23_Left_79
*294 PHY_EDGE_ROW_24_Left_80
*295 PHY_EDGE_ROW_25_Left_81
*296 PHY_EDGE_ROW_26_Left_82
*297 PHY_EDGE_ROW_27_Left_83
*298 PHY_EDGE_ROW_28_Left_84
*299 PHY_EDGE_ROW_29_Left_85
*300 PHY_EDGE_ROW_30_Left_86
*301 PHY_EDGE_ROW_31_Left_87
*302 PHY_EDGE_ROW_32_Left_88
*303 PHY_EDGE_ROW_33_Left_89
*304 PHY_EDGE_ROW_34_Left_90
*305 PHY_EDGE_ROW_35_Left_91
*306 PHY_EDGE_ROW_36_Left_92
*307 PHY_EDGE_ROW_37_Left_93
*308 PHY_EDGE_ROW_38_Left_94
*309 PHY_EDGE_ROW_39_Left_95
*310 PHY_EDGE_ROW_40_Left_96
*311 PHY_EDGE_ROW_41_Left_97
*312 PHY_EDGE_ROW_42_Left_98
*313 PHY_EDGE_ROW_43_Left_99
*314 PHY_EDGE_ROW_44_Left_100
*315 PHY_EDGE_ROW_45_Left_101
*316 PHY_EDGE_ROW_46_Left_102
*317 PHY_EDGE_ROW_47_Left_103
*318 PHY_EDGE_ROW_48_Left_104
*319 PHY_EDGE_ROW_49_Left_105
*320 PHY_EDGE_ROW_50_Left_106
*321 PHY_EDGE_ROW_51_Left_107
*322 PHY_EDGE_ROW_52_Left_108
*323 PHY_EDGE_ROW_53_Left_109
*324 PHY_EDGE_ROW_54_Left_110
*325 PHY_EDGE_ROW_55_Left_111
*326 FILLER_0_164
*327 FILLER_0_167
*328 FILLER_0_170
*329 FILLER_0_178
*330 FILLER_0_181
*331 FILLER_0_184
*332 FILLER_0_190
*333 FILLER_0_222
*334 FILLER_0_254
*335 FILLER_0_286
*336 FILLER_0_318
*337 FILLER_0_350
*338 FILLER_0_382
*339 FILLER_0_414
*340 FILLER_0_418
*341 FILLER_1_1
*342 FILLER_1_33
*343 FILLER_1_65
*344 FILLER_1_97
*345 FILLER_1_129
*346 FILLER_1_161
*347 FILLER_1_193
*348 FILLER_1_225
*349 FILLER_1_257
*350 FILLER_1_289
*351 FILLER_1_321
*352 FILLER_1_353
*353 FILLER_1_385
*354 FILLER_1_417
*355 FILLER_2_1
*356 FILLER_2_33
*357 FILLER_2_65
*358 FILLER_2_97
*359 FILLER_2_129
*360 FILLER_2_161
*361 FILLER_2_193
*362 FILLER_2_225
*363 FILLER_2_257
*364 FILLER_2_289
*365 FILLER_2_321
*366 FILLER_2_353
*367 FILLER_2_385
*368 FILLER_2_417
*369 FILLER_3_1
*370 FILLER_3_33
*371 FILLER_3_65
*372 FILLER_3_97
*373 FILLER_3_129
*374 FILLER_3_161
*375 FILLER_3_193
*376 FILLER_3_225
*377 FILLER_3_257
*378 FILLER_3_289
*379 FILLER_3_321
*380 FILLER_3_353
*381 FILLER_3_385
*382 FILLER_3_417
*383 FILLER_4_1
*384 FILLER_4_33
*385 FILLER_4_65
*386 FILLER_4_97
*387 FILLER_4_129
*388 FILLER_4_161
*389 FILLER_4_193
*390 FILLER_4_225
*391 FILLER_4_257
*392 FILLER_4_289
*393 FILLER_4_321
*394 FILLER_4_353
*395 FILLER_4_385
*396 FILLER_4_417
*397 FILLER_5_1
*398 FILLER_5_33
*399 FILLER_5_65
*400 FILLER_5_97
*401 FILLER_5_129
*402 FILLER_5_161
*403 FILLER_5_193
*404 FILLER_5_225
*405 FILLER_5_257
*406 FILLER_5_289
*407 FILLER_5_321
*408 FILLER_5_353
*409 FILLER_5_385
*410 FILLER_5_417
*411 FILLER_6_1
*412 FILLER_6_33
*413 FILLER_6_65
*414 FILLER_6_97
*415 FILLER_6_129
*416 FILLER_6_161
*417 FILLER_6_193
*418 FILLER_6_225
*419 FILLER_6_257
*420 FILLER_6_289
*421 FILLER_6_321
*422 FILLER_6_353
*423 FILLER_6_385
*424 FILLER_6_417
*425 FILLER_7_1
*426 FILLER_7_33
*427 FILLER_7_65
*428 FILLER_7_97
*429 FILLER_7_129
*430 FILLER_7_161
*431 FILLER_7_193
*432 FILLER_7_225
*433 FILLER_7_257
*434 FILLER_7_289
*435 FILLER_7_321
*436 FILLER_7_353
*437 FILLER_7_385
*438 FILLER_7_417
*439 FILLER_8_1
*440 FILLER_8_33
*441 FILLER_8_65
*442 FILLER_8_97
*443 FILLER_8_129
*444 FILLER_8_161
*445 FILLER_8_193
*446 FILLER_8_225
*447 FILLER_8_257
*448 FILLER_8_289
*449 FILLER_8_321
*450 FILLER_8_353
*451 FILLER_8_385
*452 FILLER_8_417
*453 FILLER_9_1
*454 FILLER_9_33
*455 FILLER_9_65
*456 FILLER_9_97
*457 FILLER_9_129
*458 FILLER_9_161
*459 FILLER_9_193
*460 FILLER_9_225
*461 FILLER_9_257
*462 FILLER_9_289
*463 FILLER_9_321
*464 FILLER_9_353
*465 FILLER_9_385
*466 FILLER_9_417
*467 FILLER_10_1
*468 FILLER_10_33
*469 FILLER_10_65
*470 FILLER_10_97
*471 FILLER_10_129
*472 FILLER_10_161
*473 FILLER_10_193
*474 FILLER_10_225
*475 FILLER_10_257
*476 FILLER_10_289
*477 FILLER_10_321
*478 FILLER_10_353
*479 FILLER_10_385
*480 FILLER_10_417
*481 FILLER_11_1
*482 FILLER_11_33
*483 FILLER_11_65
*484 FILLER_11_97
*485 FILLER_11_129
*486 FILLER_11_161
*487 FILLER_11_193
*488 FILLER_11_225
*489 FILLER_11_257
*490 FILLER_11_289
*491 FILLER_11_321
*492 FILLER_11_353
*493 FILLER_11_385
*494 FILLER_11_417
*495 FILLER_12_1
*496 FILLER_12_33
*497 FILLER_12_65
*498 FILLER_12_97
*499 FILLER_12_129
*500 FILLER_12_161
*501 FILLER_12_193
*502 FILLER_12_225
*503 FILLER_12_257
*504 FILLER_12_289
*505 FILLER_12_321
*506 FILLER_12_353
*507 FILLER_12_385
*508 FILLER_12_417
*509 FILLER_13_1
*510 FILLER_13_33
*511 FILLER_13_65
*512 FILLER_13_97
*513 FILLER_13_129
*514 FILLER_13_161
*515 FILLER_13_193
*516 FILLER_13_225
*517 FILLER_13_257
*518 FILLER_13_289
*519 FILLER_13_321
*520 FILLER_13_353
*521 FILLER_13_385
*522 FILLER_13_417
*523 FILLER_14_1
*524 FILLER_14_33
*525 FILLER_14_65
*526 FILLER_14_97
*527 FILLER_14_129
*528 FILLER_14_161
*529 FILLER_14_193
*530 FILLER_14_225
*531 FILLER_14_257
*532 FILLER_14_289
*533 FILLER_14_321
*534 FILLER_14_353
*535 FILLER_14_385
*536 FILLER_14_417
*537 FILLER_15_3
*538 FILLER_15_35
*539 FILLER_15_67
*540 FILLER_15_99
*541 FILLER_15_131
*542 FILLER_15_163
*543 FILLER_15_195
*544 FILLER_15_227
*545 FILLER_15_259
*546 FILLER_15_291
*547 FILLER_15_323
*548 FILLER_15_355
*549 FILLER_15_387
*550 FILLER_16_1
*551 FILLER_16_33
*552 FILLER_16_65
*553 FILLER_16_97
*554 FILLER_16_129
*555 FILLER_16_161
*556 FILLER_16_193
*557 FILLER_16_225
*558 FILLER_16_257
*559 FILLER_16_289
*560 FILLER_16_321
*561 FILLER_16_353
*562 FILLER_16_385
*563 FILLER_16_417
*564 FILLER_17_3
*565 FILLER_17_8
*566 FILLER_17_40
*567 FILLER_17_72
*568 FILLER_17_104
*569 FILLER_17_136
*570 FILLER_17_168
*571 FILLER_17_200
*572 FILLER_17_232
*573 FILLER_17_264
*574 FILLER_17_296
*575 FILLER_17_328
*576 FILLER_17_360
*577 FILLER_17_392
*578 FILLER_17_408
*579 FILLER_17_416
*580 FILLER_17_418
*581 FILLER_18_1
*582 FILLER_18_4
*583 FILLER_18_36
*584 FILLER_18_68
*585 FILLER_18_100
*586 FILLER_18_132
*587 FILLER_18_164
*588 FILLER_18_196
*589 FILLER_18_228
*590 FILLER_18_260
*591 FILLER_18_292
*592 FILLER_18_324
*593 FILLER_18_356
*594 FILLER_18_388
*595 FILLER_18_404
*596 FILLER_18_412
*597 FILLER_18_416
*598 FILLER_18_418
*599 FILLER_19_3
*600 FILLER_19_35
*601 FILLER_19_67
*602 FILLER_19_99
*603 FILLER_19_131
*604 FILLER_19_163
*605 FILLER_19_195
*606 FILLER_19_227
*607 FILLER_19_259
*608 FILLER_19_291
*609 FILLER_19_323
*610 FILLER_19_355
*611 FILLER_19_387
*612 FILLER_20_7
*613 FILLER_20_10
*614 FILLER_20_42
*615 FILLER_20_74
*616 FILLER_20_106
*617 FILLER_20_138
*618 FILLER_20_170
*619 FILLER_20_202
*620 FILLER_20_234
*621 FILLER_20_266
*622 FILLER_20_298
*623 FILLER_20_330
*624 FILLER_20_362
*625 FILLER_20_394
*626 FILLER_20_410
*627 FILLER_20_418
*628 FILLER_21_1
*629 FILLER_21_4
*630 FILLER_21_36
*631 FILLER_21_68
*632 FILLER_21_100
*633 FILLER_21_132
*634 FILLER_21_164
*635 FILLER_21_196
*636 FILLER_21_228
*637 FILLER_21_260
*638 FILLER_21_292
*639 FILLER_21_324
*640 FILLER_21_356
*641 FILLER_21_388
*642 FILLER_21_404
*643 FILLER_21_412
*644 FILLER_21_416
*645 FILLER_21_418
*646 FILLER_22_1
*647 FILLER_22_4
*648 FILLER_22_36
*649 FILLER_22_68
*650 FILLER_22_100
*651 FILLER_22_132
*652 FILLER_22_164
*653 FILLER_22_196
*654 FILLER_22_228
*655 FILLER_22_260
*656 FILLER_22_292
*657 FILLER_22_324
*658 FILLER_22_356
*659 FILLER_22_388
*660 FILLER_22_404
*661 FILLER_22_412
*662 FILLER_22_416
*663 FILLER_22_418
*664 FILLER_23_1
*665 FILLER_23_6
*666 FILLER_23_38
*667 FILLER_23_70
*668 FILLER_23_102
*669 FILLER_23_134
*670 FILLER_23_166
*671 FILLER_23_198
*672 FILLER_23_214
*673 FILLER_23_219
*674 FILLER_23_251
*675 FILLER_23_283
*676 FILLER_23_315
*677 FILLER_23_347
*678 FILLER_23_379
*679 FILLER_23_411
*680 FILLER_24_1
*681 FILLER_24_4
*682 FILLER_24_36
*683 FILLER_24_68
*684 FILLER_24_100
*685 FILLER_24_132
*686 FILLER_24_164
*687 FILLER_24_196
*688 FILLER_24_217
*689 FILLER_24_249
*690 FILLER_24_281
*691 FILLER_24_313
*692 FILLER_24_345
*693 FILLER_24_377
*694 FILLER_24_409
*695 FILLER_24_417
*696 FILLER_25_1
*697 FILLER_25_6
*698 FILLER_25_38
*699 FILLER_25_70
*700 FILLER_25_102
*701 FILLER_25_134
*702 FILLER_25_166
*703 FILLER_25_198
*704 FILLER_25_202
*705 FILLER_25_204
*706 FILLER_25_222
*707 FILLER_25_240
*708 FILLER_25_248
*709 FILLER_25_250
*710 FILLER_25_268
*711 FILLER_25_279
*712 FILLER_25_311
*713 FILLER_25_343
*714 FILLER_25_375
*715 FILLER_25_407
*716 FILLER_25_415
*717 FILLER_26_1
*718 FILLER_26_33
*719 FILLER_26_65
*720 FILLER_26_97
*721 FILLER_26_129
*722 FILLER_26_145
*723 FILLER_26_147
*724 FILLER_26_151
*725 FILLER_26_167
*726 FILLER_26_185
*727 FILLER_26_201
*728 FILLER_26_215
*729 FILLER_26_225
*730 FILLER_26_257
*731 FILLER_26_289
*732 FILLER_26_321
*733 FILLER_26_353
*734 FILLER_26_385
*735 FILLER_26_417
*736 FILLER_27_1
*737 FILLER_27_33
*738 FILLER_27_65
*739 FILLER_27_97
*740 FILLER_27_129
*741 FILLER_27_161
*742 FILLER_27_165
*743 FILLER_27_167
*744 FILLER_27_185
*745 FILLER_27_201
*746 FILLER_27_209
*747 FILLER_27_227
*748 FILLER_27_229
*749 FILLER_27_236
*750 FILLER_27_240
*751 FILLER_27_258
*752 FILLER_27_277
*753 FILLER_27_281
*754 FILLER_27_313
*755 FILLER_27_345
*756 FILLER_27_377
*757 FILLER_27_409
*758 FILLER_27_417
*759 FILLER_28_1
*760 FILLER_28_33
*761 FILLER_28_65
*762 FILLER_28_97
*763 FILLER_28_129
*764 FILLER_28_161
*765 FILLER_28_193
*766 FILLER_28_209
*767 FILLER_28_213
*768 FILLER_28_218
*769 FILLER_28_228
*770 FILLER_28_260
*771 FILLER_28_292
*772 FILLER_28_324
*773 FILLER_28_356
*774 FILLER_28_388
*775 FILLER_28_404
*776 FILLER_28_412
*777 FILLER_28_416
*778 FILLER_28_418
*779 FILLER_29_1
*780 FILLER_29_33
*781 FILLER_29_65
*782 FILLER_29_97
*783 FILLER_29_129
*784 FILLER_29_161
*785 FILLER_29_193
*786 FILLER_29_209
*787 FILLER_29_213
*788 FILLER_29_220
*789 FILLER_29_238
*790 FILLER_29_246
*791 FILLER_29_248
*792 FILLER_29_254
*793 FILLER_29_286
*794 FILLER_29_318
*795 FILLER_29_350
*796 FILLER_29_382
*797 FILLER_29_414
*798 FILLER_29_418
*799 FILLER_30_1
*800 FILLER_30_33
*801 FILLER_30_65
*802 FILLER_30_97
*803 FILLER_30_129
*804 FILLER_30_161
*805 FILLER_30_177
*806 FILLER_30_181
*807 FILLER_30_183
*808 FILLER_30_189
*809 FILLER_30_193
*810 FILLER_30_195
*811 FILLER_30_202
*812 FILLER_30_206
*813 FILLER_30_213
*814 FILLER_30_228
*815 FILLER_30_253
*816 FILLER_30_261
*817 FILLER_30_266
*818 FILLER_30_298
*819 FILLER_30_330
*820 FILLER_30_362
*821 FILLER_30_394
*822 FILLER_30_410
*823 FILLER_30_418
*824 FILLER_31_1
*825 FILLER_31_33
*826 FILLER_31_65
*827 FILLER_31_97
*828 FILLER_31_129
*829 FILLER_31_161
*830 FILLER_31_165
*831 FILLER_31_167
*832 FILLER_31_177
*833 FILLER_31_193
*834 FILLER_31_212
*835 FILLER_31_244
*836 FILLER_31_276
*837 FILLER_31_308
*838 FILLER_31_340
*839 FILLER_31_372
*840 FILLER_31_404
*841 FILLER_31_412
*842 FILLER_31_416
*843 FILLER_31_418
*844 FILLER_32_1
*845 FILLER_32_33
*846 FILLER_32_65
*847 FILLER_32_97
*848 FILLER_32_129
*849 FILLER_32_145
*850 FILLER_32_153
*851 FILLER_32_157
*852 FILLER_32_176
*853 FILLER_32_208
*854 FILLER_32_212
*855 FILLER_32_219
*856 FILLER_32_251
*857 FILLER_32_283
*858 FILLER_32_315
*859 FILLER_32_347
*860 FILLER_32_379
*861 FILLER_32_411
*862 FILLER_33_1
*863 FILLER_33_33
*864 FILLER_33_65
*865 FILLER_33_97
*866 FILLER_33_129
*867 FILLER_33_161
*868 FILLER_33_193
*869 FILLER_33_226
*870 FILLER_33_258
*871 FILLER_33_290
*872 FILLER_33_322
*873 FILLER_33_354
*874 FILLER_33_386
*875 FILLER_33_418
*876 FILLER_34_1
*877 FILLER_34_33
*878 FILLER_34_65
*879 FILLER_34_97
*880 FILLER_34_129
*881 FILLER_34_161
*882 FILLER_34_163
*883 FILLER_34_181
*884 FILLER_34_185
*885 FILLER_34_203
*886 FILLER_34_235
*887 FILLER_34_267
*888 FILLER_34_299
*889 FILLER_34_331
*890 FILLER_34_363
*891 FILLER_34_395
*892 FILLER_34_411
*893 FILLER_35_1
*894 FILLER_35_33
*895 FILLER_35_65
*896 FILLER_35_97
*897 FILLER_35_129
*898 FILLER_35_161
*899 FILLER_35_193
*900 FILLER_35_209
*901 FILLER_35_234
*902 FILLER_35_266
*903 FILLER_35_298
*904 FILLER_35_330
*905 FILLER_35_362
*906 FILLER_35_394
*907 FILLER_35_410
*908 FILLER_35_418
*909 FILLER_36_1
*910 FILLER_36_33
*911 FILLER_36_65
*912 FILLER_36_97
*913 FILLER_36_129
*914 FILLER_36_161
*915 FILLER_36_177
*916 FILLER_36_179
*917 FILLER_36_183
*918 FILLER_36_199
*919 FILLER_36_204
*920 FILLER_36_220
*921 FILLER_36_228
*922 FILLER_36_232
*923 FILLER_36_236
*924 FILLER_36_268
*925 FILLER_36_300
*926 FILLER_36_332
*927 FILLER_36_364
*928 FILLER_36_396
*929 FILLER_36_412
*930 FILLER_36_416
*931 FILLER_36_418
*932 FILLER_37_1
*933 FILLER_37_33
*934 FILLER_37_65
*935 FILLER_37_97
*936 FILLER_37_129
*937 FILLER_37_161
*938 FILLER_37_193
*939 FILLER_37_225
*940 FILLER_37_257
*941 FILLER_37_289
*942 FILLER_37_321
*943 FILLER_37_353
*944 FILLER_37_385
*945 FILLER_37_417
*946 FILLER_38_1
*947 FILLER_38_33
*948 FILLER_38_65
*949 FILLER_38_97
*950 FILLER_38_129
*951 FILLER_38_161
*952 FILLER_38_193
*953 FILLER_38_225
*954 FILLER_38_257
*955 FILLER_38_289
*956 FILLER_38_321
*957 FILLER_38_353
*958 FILLER_38_385
*959 FILLER_38_417
*960 FILLER_39_1
*961 FILLER_39_33
*962 FILLER_39_65
*963 FILLER_39_97
*964 FILLER_39_129
*965 FILLER_39_161
*966 FILLER_39_193
*967 FILLER_39_225
*968 FILLER_39_257
*969 FILLER_39_289
*970 FILLER_39_321
*971 FILLER_39_353
*972 FILLER_39_385
*973 FILLER_39_417
*974 FILLER_40_1
*975 FILLER_40_33
*976 FILLER_40_65
*977 FILLER_40_97
*978 FILLER_40_129
*979 FILLER_40_161
*980 FILLER_40_193
*981 FILLER_40_225
*982 FILLER_40_257
*983 FILLER_40_289
*984 FILLER_40_321
*985 FILLER_40_353
*986 FILLER_40_385
*987 FILLER_40_417
*988 FILLER_41_1
*989 FILLER_41_33
*990 FILLER_41_65
*991 FILLER_41_97
*992 FILLER_41_129
*993 FILLER_41_161
*994 FILLER_41_193
*995 FILLER_41_225
*996 FILLER_41_257
*997 FILLER_41_289
*998 FILLER_41_321
*999 FILLER_41_353
*1000 FILLER_41_385
*1001 FILLER_41_417
*1002 FILLER_42_1
*1003 FILLER_42_33
*1004 FILLER_42_65
*1005 FILLER_42_97
*1006 FILLER_42_129
*1007 FILLER_42_161
*1008 FILLER_42_193
*1009 FILLER_42_225
*1010 FILLER_42_257
*1011 FILLER_42_289
*1012 FILLER_42_321
*1013 FILLER_42_353
*1014 FILLER_42_385
*1015 FILLER_42_417
*1016 FILLER_43_1
*1017 FILLER_43_33
*1018 FILLER_43_65
*1019 FILLER_43_97
*1020 FILLER_43_129
*1021 FILLER_43_161
*1022 FILLER_43_193
*1023 FILLER_43_225
*1024 FILLER_43_257
*1025 FILLER_43_289
*1026 FILLER_43_321
*1027 FILLER_43_353
*1028 FILLER_43_385
*1029 FILLER_43_417
*1030 FILLER_44_1
*1031 FILLER_44_33
*1032 FILLER_44_65
*1033 FILLER_44_97
*1034 FILLER_44_129
*1035 FILLER_44_161
*1036 FILLER_44_193
*1037 FILLER_44_225
*1038 FILLER_44_257
*1039 FILLER_44_289
*1040 FILLER_44_321
*1041 FILLER_44_353
*1042 FILLER_44_385
*1043 FILLER_44_417
*1044 FILLER_45_1
*1045 FILLER_45_33
*1046 FILLER_45_65
*1047 FILLER_45_97
*1048 FILLER_45_129
*1049 FILLER_45_161
*1050 FILLER_45_193
*1051 FILLER_45_225
*1052 FILLER_45_257
*1053 FILLER_45_289
*1054 FILLER_45_321
*1055 FILLER_45_353
*1056 FILLER_45_385
*1057 FILLER_45_417
*1058 FILLER_46_1
*1059 FILLER_46_33
*1060 FILLER_46_65
*1061 FILLER_46_97
*1062 FILLER_46_129
*1063 FILLER_46_161
*1064 FILLER_46_193
*1065 FILLER_46_225
*1066 FILLER_46_257
*1067 FILLER_46_289
*1068 FILLER_46_321
*1069 FILLER_46_353
*1070 FILLER_46_385
*1071 FILLER_46_417
*1072 FILLER_47_1
*1073 FILLER_47_33
*1074 FILLER_47_65
*1075 FILLER_47_97
*1076 FILLER_47_129
*1077 FILLER_47_161
*1078 FILLER_47_193
*1079 FILLER_47_225
*1080 FILLER_47_257
*1081 FILLER_47_289
*1082 FILLER_47_321
*1083 FILLER_47_353
*1084 FILLER_47_385
*1085 FILLER_47_417
*1086 FILLER_48_1
*1087 FILLER_48_33
*1088 FILLER_48_65
*1089 FILLER_48_97
*1090 FILLER_48_129
*1091 FILLER_48_161
*1092 FILLER_48_193
*1093 FILLER_48_225
*1094 FILLER_48_257
*1095 FILLER_48_289
*1096 FILLER_48_321
*1097 FILLER_48_353
*1098 FILLER_48_385
*1099 FILLER_48_417
*1100 FILLER_49_1
*1101 FILLER_49_33
*1102 FILLER_49_65
*1103 FILLER_49_97
*1104 FILLER_49_129
*1105 FILLER_49_161
*1106 FILLER_49_193
*1107 FILLER_49_225
*1108 FILLER_49_257
*1109 FILLER_49_289
*1110 FILLER_49_321
*1111 FILLER_49_353
*1112 FILLER_49_385
*1113 FILLER_49_417
*1114 FILLER_50_1
*1115 FILLER_50_33
*1116 FILLER_50_65
*1117 FILLER_50_97
*1118 FILLER_50_129
*1119 FILLER_50_161
*1120 FILLER_50_193
*1121 FILLER_50_225
*1122 FILLER_50_257
*1123 FILLER_50_289
*1124 FILLER_50_321
*1125 FILLER_50_353
*1126 FILLER_50_385
*1127 FILLER_50_417
*1128 FILLER_51_1
*1129 FILLER_51_33
*1130 FILLER_51_65
*1131 FILLER_51_97
*1132 FILLER_51_129
*1133 FILLER_51_161
*1134 FILLER_51_193
*1135 FILLER_51_225
*1136 FILLER_51_257
*1137 FILLER_51_289
*1138 FILLER_51_321
*1139 FILLER_51_353
*1140 FILLER_51_385
*1141 FILLER_51_417
*1142 FILLER_52_1
*1143 FILLER_52_33
*1144 FILLER_52_65
*1145 FILLER_52_97
*1146 FILLER_52_129
*1147 FILLER_52_161
*1148 FILLER_52_193
*1149 FILLER_52_225
*1150 FILLER_52_257
*1151 FILLER_52_289
*1152 FILLER_52_321
*1153 FILLER_52_353
*1154 FILLER_52_385
*1155 FILLER_52_417
*1156 FILLER_53_1
*1157 FILLER_53_33
*1158 FILLER_53_65
*1159 FILLER_53_97
*1160 FILLER_53_129
*1161 FILLER_53_161
*1162 FILLER_53_193
*1163 FILLER_53_225
*1164 FILLER_53_257
*1165 FILLER_53_289
*1166 FILLER_53_321
*1167 FILLER_53_353
*1168 FILLER_53_385
*1169 FILLER_53_417
*1170 FILLER_54_1
*1171 FILLER_54_33
*1172 FILLER_54_65
*1173 FILLER_54_97
*1174 FILLER_54_129
*1175 FILLER_54_161
*1176 FILLER_54_193
*1177 FILLER_54_225
*1178 FILLER_54_257
*1179 FILLER_54_289
*1180 FILLER_54_321
*1181 FILLER_54_353
*1182 FILLER_54_385
*1183 FILLER_54_417
*1184 FILLER_55_1
*1185 FILLER_55_33
*1186 FILLER_55_65
*1187 FILLER_55_97
*1188 FILLER_55_129
*1189 FILLER_55_161
*1190 FILLER_55_193
*1191 FILLER_55_225
*1192 FILLER_55_257
*1193 FILLER_55_289
*1194 FILLER_55_321
*1195 FILLER_55_353
*1196 FILLER_55_385
*1197 FILLER_55_417

*PORTS
clk I
obs_tag[0] O
obs_tag[1] O
obs_tag[2] O
obs_tag[3] O
obs_tag[4] O
obs_tag[5] O
obs_tag[6] O
obs_tag[7] O
obs_valid O
obs_y[0] O
obs_y[10] O
obs_y[11] O
obs_y[12] O
obs_y[13] O
obs_y[14] O
obs_y[15] O
obs_y[16] O
obs_y[17] O
obs_y[18] O
obs_y[19] O
obs_y[1] O
obs_y[20] O
obs_y[21] O
obs_y[22] O
obs_y[23] O
obs_y[24] O
obs_y[25] O
obs_y[26] O
obs_y[27] O
obs_y[28] O
obs_y[29] O
obs_y[2] O
obs_y[30] O
obs_y[31] O
obs_y[3] O
obs_y[4] O
obs_y[5] O
obs_y[6] O
obs_y[7] O
obs_y[8] O
obs_y[9] O

*D_NET *1 0.000134675
*CONN
*I *177:D I *D DFF_X1
*I *130:Z O *D XOR2_X1
*CAP
1 *177:D 5.81717e-05
2 *130:Z 5.81717e-05
3 *177:D *177:CK 1.83315e-05
4 *177:D *79:12 0
*RES
1 *130:Z *177:D 16.5357 
*END

*D_NET *2 7.683e-05
*CONN
*I *178:D I *D DFF_X1
*I *129:ZN O *D XNOR2_X1
*CAP
1 *178:D 3.49019e-05
2 *129:ZN 3.49019e-05
3 *178:D *178:CK 7.02617e-06
4 *178:D *107:59 0
*RES
1 *129:ZN *178:D 13.75 
*END

*D_NET *3 0.000124507
*CONN
*I *179:D I *D DFF_X1
*I *128:ZN O *D XNOR2_X1
*CAP
1 *179:D 5.68871e-05
2 *128:ZN 5.68871e-05
3 *179:D *128:A 4.65939e-06
4 *179:D *106:51 6.07323e-06
*RES
1 *128:ZN *179:D 26.0357 
*END

*D_NET *4 0.000246527
*CONN
*I *180:D I *D DFF_X1
*I *126:ZN O *D XNOR2_X1
*CAP
1 *180:D 5.61671e-05
2 *126:ZN 5.61671e-05
3 *180:D *180:CK 0
4 *180:D *82:8 0.000134192
*RES
1 *126:ZN *180:D 28.2857 
*END

*D_NET *5 8.19139e-05
*CONN
*I *181:D I *D DFF_X1
*I *124:ZN O *D XNOR2_X1
*CAP
1 *181:D 2.99759e-05
2 *124:ZN 2.99759e-05
3 *181:D *124:A 1.58933e-05
4 *181:D *177:CK 6.06867e-06
*RES
1 *124:ZN *181:D 13.75 
*END

*D_NET *6 0.000236743
*CONN
*I *182:D I *D DFF_X1
*I *121:Z O *D XOR2_X2
*CAP
1 *182:D 0.000118052
2 *121:Z 0.000118052
3 *182:D *121:A 0
4 *182:D *182:CK 6.38328e-07
5 *182:D *84:10 0
*RES
1 *121:Z *182:D 32.1429 
*END

*D_NET *7 0.000491057
*CONN
*I *127:A3 I *D NAND3_X1
*I *123:A3 I *D NAND4_X1
*I *130:B I *D XOR2_X1
*I *131:CO O *D HA_X1
*CAP
1 *127:A3 6.79476e-05
2 *123:A3 4.01182e-05
3 *130:B 8.8091e-06
4 *131:CO 0
5 *7:10 8.85971e-05
6 *7:4 0.000107617
7 *123:A3 *123:A4 0
8 *123:A3 *125:A1 1.37446e-05
9 *123:A3 *79:24 6.87788e-06
10 *127:A3 *118:A1 0
11 *127:A3 *125:A3 5.11574e-06
12 *127:A3 *127:A1 1.95492e-05
13 *127:A3 *127:A2 2.75346e-06
14 *127:A3 *9:8 1.3414e-05
15 *130:B *125:A1 7.19036e-06
16 *130:B *78:6 7.72537e-06
17 *130:B *79:24 2.23415e-06
18 *7:10 *118:A2 0
19 *7:10 *126:B 4.177e-06
20 *7:10 *78:10 9.44188e-05
21 *7:10 *79:24 7.66675e-07
22 *7:10 *79:28 0
23 *7:10 *79:30 0
*RES
1 *131:CO *7:4 5 
2 *7:4 *7:10 15.6786 
3 *7:10 *130:B 6.25 
4 *7:10 *123:A3 9.67857 
5 *7:4 *127:A3 13.25 
*END

*D_NET *9 0.000724303
*CONN
*I *120:A1 I *D NOR2_X2
*I *129:B I *D XNOR2_X1
*I *118:ZN O *D NAND3_X2
*CAP
1 *120:A1 0
2 *129:B 6.87484e-05
3 *118:ZN 0.000154022
4 *9:8 0.00022277
5 *129:B *129:A 7.72537e-06
6 *129:B *170:D 0
7 *129:B *80:12 0.000147189
8 *129:B *80:42 1.2453e-05
9 *9:8 *118:A1 0
10 *9:8 *127:A2 0
11 *9:8 *128:B 9.79823e-05
12 *9:8 *176:D 0
13 *127:A3 *9:8 1.3414e-05
*RES
1 *118:ZN *9:8 23.5357 
2 *9:8 *129:B 25.1429 
3 *9:8 *120:A1 5 
*END

*D_NET *10 3.29985e-05
*CONN
*I *120:A2 I *D NOR2_X2
*I *119:ZN O *D NAND4_X2
*CAP
1 *120:A2 1.16971e-05
2 *119:ZN 1.16971e-05
3 *120:A2 *128:B 9.60427e-06
*RES
1 *119:ZN *120:A2 11.6071 
*END

*D_NET *11 0.000724303
*CONN
*I *121:B I *D XOR2_X2
*I *120:ZN O *D NOR2_X2
*CAP
1 *121:B 0.000211315
2 *120:ZN 0.000211315
3 *121:B *170:D 3.63228e-05
4 *121:B *178:CK 0.000116162
5 *121:B *80:12 5.64598e-05
6 *121:B *107:55 8.19658e-05
7 *121:B *108:23 1.07619e-05
*RES
1 *120:ZN *121:B 49.6072 
*END

*D_NET *12 0.000306259
*CONN
*I *123:A4 I *D NAND4_X1
*I *125:A4 I *D NAND4_X1
*I *122:ZN O *D AND2_X2
*CAP
1 *123:A4 4.38275e-05
2 *125:A4 2.31349e-05
3 *122:ZN 4.72178e-05
4 *12:6 0.00011418
5 *123:A4 *119:A2 7.84384e-06
6 *125:A4 *127:A1 1.8643e-05
7 *12:6 *119:A2 2.6197e-05
8 *12:6 *127:A1 1.10467e-05
9 *12:6 *127:A2 1.41684e-05
10 *123:A3 *123:A4 0
*RES
1 *122:ZN *12:6 11.75 
2 *12:6 *125:A4 7.67857 
3 *12:6 *123:A4 9.71429 
*END

*D_NET *13 0.000140524
*CONN
*I *124:B I *D XNOR2_X1
*I *123:ZN O *D NAND4_X1
*CAP
1 *124:B 4.72782e-05
2 *123:ZN 4.72782e-05
3 *124:B *119:A2 2.75402e-05
4 *124:B *124:A 8.52419e-06
5 *124:B *177:CK 9.9032e-06
*RES
1 *123:ZN *124:B 16.1786 
*END

*D_NET *14 0.000181847
*CONN
*I *126:B I *D XNOR2_X1
*I *125:ZN O *D NAND4_X1
*CAP
1 *126:B 6.5437e-05
2 *125:ZN 6.5437e-05
3 *126:B *79:24 0
4 *126:B *79:28 2.99188e-05
5 *126:B *82:8 3.01743e-06
6 *126:B *82:12 1.38599e-05
7 *7:10 *126:B 4.177e-06
*RES
1 *125:ZN *126:B 28.3929 
*END

*D_NET *15 0.000635289
*CONN
*I *128:B I *D XNOR2_X1
*I *127:ZN O *D NAND3_X1
*CAP
1 *128:B 0.000233423
2 *127:ZN 0.000233423
3 *128:B *118:A2 0
4 *128:B *119:A4 9.57492e-07
5 *128:B *122:A1 5.74951e-06
6 *128:B *127:A2 2.23871e-06
7 *128:B *79:30 0
8 *128:B *80:10 6.72699e-06
9 *128:B *80:42 1.02719e-06
10 *128:B *80:44 0
11 *128:B *106:51 4.41566e-05
12 *120:A2 *128:B 9.60427e-06
13 *9:8 *128:B 9.79823e-05
*RES
1 *127:ZN *128:B 48.2857 
*END

*D_NET *16 0.000137161
*CONN
*I *175:D I *D DFF_X1
*I *175:QN O *D DFF_X1
*CAP
1 *175:D 5.37236e-05
2 *175:QN 5.37236e-05
3 *175:D *167:D 2.97137e-05
*RES
1 *175:QN *175:D 27.0357 
*END

*D_NET *17 0.000122914
*CONN
*I *176:D I *D DFF_X1
*I *131:S O *D HA_X1
*CAP
1 *176:D 6.02584e-05
2 *131:S 6.02584e-05
3 *176:D *168:D 0
4 *176:D *168:CK 2.39679e-06
5 *9:8 *176:D 0
*RES
1 *131:S *176:D 16.0357 
*END

*D_NET *35 0.00428834
*CONN
*P clk I
*I *158:A I *D CLKBUF_X3
*CAP
1 clk 0.000540916
2 *158:A 0
3 *35:18 0.000286304
4 *35:10 0.00158469
5 *35:8 0.0018393
6 *35:18 *119:A4 3.67948e-05
7 *35:18 *83:14 3.36789e-07
*RES
1 clk *35:8 23.2275 
2 *35:8 *35:10 55.8375 
3 *35:10 *35:18 21.1457 
4 *35:18 *158:A 10 
*END

*D_NET *36 0.000460293
*CONN
*I *166:A I *D BUF_X1
*I *167:Q O *D DFF_X1
*CAP
1 *166:A 0.000230146
2 *167:Q 0.000230146
3 *166:A *167:D 0
4 *166:A *107:14 0
5 *166:A *116:14 0
*RES
1 *167:Q *166:A 44.6786 
*END

*D_NET *37 7.68301e-05
*CONN
*I *165:A I *D BUF_X1
*I *168:Q O *D DFF_X1
*CAP
1 *165:A 3.8415e-05
2 *168:Q 3.8415e-05
*RES
1 *168:Q *165:A 13.75 
*END

*D_NET *38 0.000110953
*CONN
*I *164:A I *D BUF_X1
*I *169:Q O *D DFF_X1
*CAP
1 *164:A 5.54767e-05
2 *169:Q 5.54767e-05
*RES
1 *169:Q *164:A 26.3571 
*END

*D_NET *39 0.000194545
*CONN
*I *163:A I *D BUF_X1
*I *170:Q O *D DFF_X1
*CAP
1 *163:A 9.72723e-05
2 *170:Q 9.72723e-05
*RES
1 *170:Q *163:A 19.6786 
*END

*D_NET *40 7.68301e-05
*CONN
*I *162:A I *D BUF_X1
*I *171:Q O *D DFF_X1
*CAP
1 *162:A 3.8415e-05
2 *171:Q 3.8415e-05
*RES
1 *171:Q *162:A 13.75 
*END

*D_NET *41 3.01606e-05
*CONN
*I *161:A I *D BUF_X1
*I *172:Q O *D DFF_X1
*CAP
1 *161:A 1.50803e-05
2 *172:Q 1.50803e-05
*RES
1 *172:Q *161:A 11.6071 
*END

*D_NET *42 0.00013464
*CONN
*I *160:A I *D BUF_X1
*I *173:Q O *D DFF_X1
*CAP
1 *160:A 6.73201e-05
2 *173:Q 6.73201e-05
*RES
1 *173:Q *160:A 27.7143 
*END

*D_NET *43 0.000177118
*CONN
*I *159:A I *D BUF_X1
*I *174:Q O *D DFF_X1
*CAP
1 *159:A 8.85592e-05
2 *174:Q 8.85592e-05
*RES
1 *174:Q *159:A 18.75 
*END

*D_NET *44 0.000737363
*CONN
*P obs_valid O
*I *133:Z O *D LOGIC1_X1
*CAP
1 obs_valid 0.000368681