*SPEF "ieee 1481-1999"
*DESIGN "prob240_perf"
*DATE "18:57:05 Tuesday April 28, 2026"
*VENDOR "The OpenROAD Project"
*PROGRAM "OpenROAD"
*VERSION "26Q1-1788-gdc4da4fafa"
*DESIGN_FLOW "NAME_SCOPE LOCAL" "PIN_CAP NONE"
*DIVIDER /
*DELIMITER :
*BUS_DELIMITER []
*T_UNIT 1 NS
*C_UNIT 1 PF
*R_UNIT 1 OHM
*L_UNIT 1 HENRY

*NAME_MAP
*1 _00_
*2 _01_
*3 _02_
*4 _03_
*5 _04_
*6 _05_
*7 _06_
*9 _08_
*10 _09_
*11 _10_
*12 _11_
*13 _12_
*14 _13_
*15 _14_
*16 _15_
*17 _16_
*18 _17_
*19 _18_
*20 _19_
*21 _20_
*22 _21_
*23 _22_
*24 _23_
*25 _24_
*26 _25_
*27 _26_
*28 _27_
*29 _28_
*30 _29_
*31 _30_
*32 _31_
*35 clk
*36 net33
*37 net34
*38 net35
*39 net36
*40 net37
*41 net38
*42 net39
*43 net40
*44 obs_valid
*45 obs_y[0]
*46 obs_y[10]
*47 obs_y[11]
*48 obs_y[12]
*49 obs_y[13]
*50 obs_y[14]
*51 obs_y[15]
*52 obs_y[16]
*53 obs_y[17]
*54 obs_y[18]
*55 obs_y[19]
*56 obs_y[1]
*57 obs_y[20]
*58 obs_y[21]
*59 obs_y[22]
*60 obs_y[23]
*61 obs_y[24]
*62 obs_y[25]
*63 obs_y[26]
*64 obs_y[27]
*65 obs_y[28]
*66 obs_y[29]
*67 obs_y[2]
*68 obs_y[30]
*69 obs_y[31]
*70 obs_y[3]
*71 obs_y[4]
*72 obs_y[5]
*73 obs_y[6]
*74 obs_y[7]
*75 obs_y[8]
*76 obs_y[9]
*77 u_top\.issue_tag\[0\]
*78 u_top\.issue_tag\[1\]
*79 u_top\.issue_tag\[2\]
*80 u_top\.issue_tag\[3\]
*81 u_top\.issue_tag\[4\]
*82 u_top\.issue_tag\[5\]
*83 u_top\.issue_tag\[6\]
*84 u_top\.issue_tag\[7\]
*106 clknet_1_1__leaf_clk
*107 clknet_1_0__leaf_clk
*108 clknet_0_clk
*109 obs_tag[7]
*110 obs_tag[6]
*111 obs_tag[5]
*112 obs_tag[4]
*113 obs_tag[3]
*114 obs_tag[2]
*115 obs_tag[1]
*116 obs_tag[0]
*117 FILLER_0_178
*118 _35_
*119 _36_
*120 _37_
*121 _38_
*122 _39_
*123 _40_
*124 _41_
*125 _42_
*126 _43_
*127 _44_
*128 _45_
*129 _46_
*130 _47_
*131 _48_
*132 PHY_EDGE_ROW_0_Right_0
*133 _51__33
*134 FILLER_0_170
*135 FILLER_0_167
*136 FILLER_0_164
*137 FILLER_0_161
*138 FILLER_0_158
*139 FILLER_0_155
*140 FILLER_0_152
*141 FILLER_0_149
*142 FILLER_0_146
*143 FILLER_0_140
*144 FILLER_0_137
*145 FILLER_0_131
*146 FILLER_0_128
*147 FILLER_0_126
*148 FILLER_0_122
*149 FILLER_0_119
*150 FILLER_0_117
*151 FILLER_0_113
*152 FILLER_0_97
*153 FILLER_0_65
*154 FILLER_0_33
*155 FILLER_0_1
*156 clkbuf_1_1__f_clk
*157 clkbuf_1_0__f_clk
*158 clkbuf_0_clk
*159 output41
*160 output40
*161 output39
*162 output38
*163 output37
*164 output36
*165 output35
*166 output34
*167 u_top\.issue_tag\[0\]\$_DFF_P_
*168 u_top\.issue_tag\[1\]\$_DFF_P_
*169 u_top\.issue_tag\[2\]\$_DFF_P_
*170 u_top\.issue_tag\[3\]\$_DFF_P_
*171 u_top\.issue_tag\[4\]\$_DFF_P_
*172 u_top\.issue_tag\[5\]\$_DFF_P_
*173 u_top\.issue_tag\[6\]\$_DFF_P_
*174 u_top\.issue_tag\[7\]\$_DFF_P_
*175 u_top\.out_tag\[0\]\$_DFF_P_
*176 u_top\.out_tag\[1\]\$_DFF_P_
*177 u_top\.out_tag\[2\]\$_DFF_P_
*178 u_top\.out_tag\[3\]\$_DFF_P_
*179 u_top\.out_tag\[4\]\$_DFF_P_
*180 u_top\.out_tag\[5\]\$_DFF_P_
*181 u_top\.out_tag\[6\]\$_DFF_P_
*182 u_top\.out_tag\[7\]\$_DFF_P_
*183 _52__1
*184 _53__2
*185 _54__3
*186 _55__4
*187 _56__5
*188 _57__6
*189 _58__7
*190 _59__8
*191 _60__9
*192 _61__10
*193 _62__11
*194 _63__12
*195 _64__13
*196 _65__14
*197 _66__15
*198 _67__16
*199 _68__17
*200 _69__18
*201 _70__19
*202 _71__20
*203 _72__21
*204 _73__22
*205 _74__23
*206 _75__24
*207 _76__25
*208 _77__26
*209 _78__27
*210 _79__28
*211 _80__29
*212 _81__30
*213 _82__31
*214 _83__32
*215 PHY_EDGE_ROW_1_Right_1
*216 PHY_EDGE_ROW_2_Right_2
*217 PHY_EDGE_ROW_3_Right_3
*218 PHY_EDGE_ROW_4_Right_4
*219 PHY_EDGE_ROW_5_Right_5
*220 PHY_EDGE_ROW_6_Right_6
*221 PHY_EDGE_ROW_7_Right_7
*222 PHY_EDGE_ROW_8_Right_8
*223 PHY_EDGE_ROW_9_Right_9
*224 PHY_EDGE_ROW_10_Right_10
*225 PHY_EDGE_ROW_11_Right_11
*226 PHY_EDGE_ROW_12_Right_12
*227 PHY_EDGE_ROW_13_Right_13
*228 PHY_EDGE_ROW_14_Right_14
*229 PHY_EDGE_ROW_15_Right_15
*230 PHY_EDGE_ROW_16_Right_16
*231 PHY_EDGE_ROW_17_Right_17
*232 PHY_EDGE_ROW_18_Right_18
*233 PHY_EDGE_ROW_19_Right_19
*234 PHY_EDGE_ROW_20_Right_20
*235 PHY_EDGE_ROW_21_Right_21
*236 PHY_EDGE_ROW_22_Right_22
*237 PHY_EDGE_ROW_23_Right_23
*238 PHY_EDGE_ROW_24_Right_24
*239 PHY_EDGE_ROW_25_Right_25
*240 PHY_EDGE_ROW_26_Right_26
*241 PHY_EDGE_ROW_27_Right_27
*242 PHY_EDGE_ROW_28_Right_28
*243 PHY_EDGE_ROW_29_Right_29
*244 PHY_EDGE_ROW_30_Right_30
*245 PHY_EDGE_ROW_31_Right_31
*246 PHY_EDGE_ROW_32_Right_32
*247 PHY_EDGE_ROW_33_Right_33
*248 PHY_EDGE_ROW_34_Right_34
*249 PHY_EDGE_ROW_35_Right_35
*250 PHY_EDGE_ROW_36_Right_36
*251 PHY_EDGE_ROW_37_Right_37
*252 PHY_EDGE_ROW_38_Right_38
*253 PHY_EDGE_ROW_39_Right_39
*254 PHY_EDGE_ROW_40_Right_40
*255 PHY_EDGE_ROW_41_Right_41
*256 PHY_EDGE_ROW_42_Right_42
*257 PHY_EDGE_ROW_43_Right_43
*258 PHY_EDGE_ROW_44_Right_44
*259 PHY_EDGE_ROW_45_Right_45
*260 PHY_EDGE_ROW_46_Right_46
*261 PHY_EDGE_ROW_47_Right_47
*262 PHY_EDGE_ROW_48_Right_48
*263 PHY_EDGE_ROW_49_Right_49
*264 PHY_EDGE_ROW_50_Right_50
*265 PHY_EDGE_ROW_51_Right_51
*266 PHY_EDGE_ROW_52_Right_52
*267 PHY_EDGE_ROW_53_Right_53
*268 PHY_EDGE_ROW_54_Right_54
*269 PHY_EDGE_ROW_55_Right_55
*270 PHY_EDGE_ROW_0_Left_56
*271 PHY_EDGE_ROW_1_Left_57
*272 PHY_EDGE_ROW_2_Left_58
*273 PHY_EDGE_ROW_3_Left_59
*274 PHY_EDGE_ROW_4_Left_60
*275 PHY_EDGE_ROW_5_Left_61
*276 PHY_EDGE_ROW_6_Left_62
*277 PHY_EDGE_ROW_7_Left_63
*278 PHY_EDGE_ROW_8_Left_64
*279 PHY_EDGE_ROW_9_Left_65
*280 PHY_EDGE_ROW_10_Left_66
*281 PHY_EDGE_ROW_11_Left_67
*282 PHY_EDGE_ROW_12_Left_68
*283 PHY_EDGE_ROW_13_Left_69
*284 PHY_EDGE_ROW_14_Left_70
*285 PHY_EDGE_ROW_15_Left_71
*286 PHY_EDGE_ROW_16_Left_72
*287 PHY_EDGE_ROW_17_Left_73
*288 PHY_EDGE_ROW_18_Left_74
*289 PHY_EDGE_ROW_19_Left_75
*290 PHY_EDGE_ROW_20_Left_76
*291 PHY_EDGE_ROW_21_Left_77
*292 PHY_EDGE_ROW_22_Left_78
*293 PHY_EDGE_ROW_23_Left_79
*294 PHY_EDGE_ROW_24_Left_80
*295 PHY_EDGE_ROW_25_Left_81
*296 PHY_EDGE_ROW_26_Left_82
*297 PHY_EDGE_ROW_27_Left_83
*298 PHY_EDGE_ROW_28_Left_84
*299 PHY_EDGE_ROW_29_Left_85
*300 PHY_EDGE_ROW_30_Left_86
*301 PHY_EDGE_ROW_31_Left_87
*302 PHY_EDGE_ROW_32_Left_88
*303 PHY_EDGE_ROW_33_Left_89
*304 PHY_EDGE_ROW_34_Left_90
*305 PHY_EDGE_ROW_35_Left_91
*306 PHY_EDGE_ROW_36_Left_92
*307 PHY_EDGE_ROW_37_Left_93
*308 PHY_EDGE_ROW_38_Left_94
*309 PHY_EDGE_ROW_39_Left_95
*310 PHY_EDGE_ROW_40_Left_96
*311 PHY_EDGE_ROW_41_Left_97
*312 PHY_EDGE_ROW_42_Left_98
*313 PHY_EDGE_ROW_43_Left_99
*314 PHY_EDGE_ROW_44_Left_100
*315 PHY_EDGE_ROW_45_Left_101
*316 PHY_EDGE_ROW_46_Left_102
*317 PHY_EDGE_ROW_47_Left_103
*318 PHY_EDGE_ROW_48_Left_104
*319 PHY_EDGE_ROW_49_Left_105
*320 PHY_EDGE_ROW_50_Left_106
*321 PHY_EDGE_ROW_51_Left_107
*322 PHY_EDGE_ROW_52_Left_108
*323 PHY_EDGE_ROW_53_Left_109
*324 PHY_EDGE_ROW_54_Left_110
*325 PHY_EDGE_ROW_55_Left_111
*326 FILLER_0_184
*327 FILLER_0_187
*328 FILLER_0_190
*329 FILLER_0_222
*330 FILLER_0_254
*331 FILLER_0_286
*332 FILLER_0_318
*333 FILLER_0_350
*334 FILLER_0_382
*335 FILLER_0_414
*336 FILLER_0_418
*337 FILLER_1_1
*338 FILLER_1_33
*339 FILLER_1_65
*340 FILLER_1_97
*341 FILLER_1_129
*342 FILLER_1_161
*343 FILLER_1_193
*344 FILLER_1_225
*345 FILLER_1_257
*346 FILLER_1_289
*347 FILLER_1_321
*348 FILLER_1_353
*349 FILLER_1_385
*350 FILLER_1_417
*351 FILLER_2_1
*352 FILLER_2_33
*353 FILLER_2_65
*354 FILLER_2_97
*355 FILLER_2_129
*356 FILLER_2_161
*357 FILLER_2_193
*358 FILLER_2_225
*359 FILLER_2_257
*360 FILLER_2_289
*361 FILLER_2_321
*362 FILLER_2_353
*363 FILLER_2_385
*364 FILLER_2_417
*365 FILLER_3_1
*366 FILLER_3_33
*367 FILLER_3_65
*368 FILLER_3_97
*369 FILLER_3_129
*370 FILLER_3_161
*371 FILLER_3_193
*372 FILLER_3_225
*373 FILLER_3_257
*374 FILLER_3_289
*375 FILLER_3_321
*376 FILLER_3_353
*377 FILLER_3_385
*378 FILLER_3_417
*379 FILLER_4_1
*380 FILLER_4_33
*381 FILLER_4_65
*382 FILLER_4_97
*383 FILLER_4_129
*384 FILLER_4_161
*385 FILLER_4_193
*386 FILLER_4_225
*387 FILLER_4_257
*388 FILLER_4_289
*389 FILLER_4_321
*390 FILLER_4_353
*391 FILLER_4_385
*392 FILLER_4_417
*393 FILLER_5_1
*394 FILLER_5_33
*395 FILLER_5_65
*396 FILLER_5_97
*397 FILLER_5_129
*398 FILLER_5_161
*399 FILLER_5_193
*400 FILLER_5_225
*401 FILLER_5_257
*402 FILLER_5_289
*403 FILLER_5_321
*404 FILLER_5_353
*405 FILLER_5_385
*406 FILLER_5_417
*407 FILLER_6_1
*408 FILLER_6_33
*409 FILLER_6_65
*410 FILLER_6_97
*411 FILLER_6_129
*412 FILLER_6_161
*413 FILLER_6_193
*414 FILLER_6_225
*415 FILLER_6_257
*416 FILLER_6_289
*417 FILLER_6_321
*418 FILLER_6_353
*419 FILLER_6_385
*420 FILLER_6_417
*421 FILLER_7_1
*422 FILLER_7_33
*423 FILLER_7_65
*424 FILLER_7_97
*425 FILLER_7_129
*426 FILLER_7_161
*427 FILLER_7_193
*428 FILLER_7_225
*429 FILLER_7_257
*430 FILLER_7_289
*431 FILLER_7_321
*432 FILLER_7_353
*433 FILLER_7_385
*434 FILLER_7_417
*435 FILLER_8_1
*436 FILLER_8_33
*437 FILLER_8_65
*438 FILLER_8_97
*439 FILLER_8_129
*440 FILLER_8_161
*441 FILLER_8_193
*442 FILLER_8_225
*443 FILLER_8_257
*444 FILLER_8_289
*445 FILLER_8_321
*446 FILLER_8_353
*447 FILLER_8_385
*448 FILLER_8_417
*449 FILLER_9_1
*450 FILLER_9_33
*451 FILLER_9_65
*452 FILLER_9_97
*453 FILLER_9_129
*454 FILLER_9_161
*455 FILLER_9_193
*456 FILLER_9_225
*457 FILLER_9_257
*458 FILLER_9_289
*459 FILLER_9_321
*460 FILLER_9_353
*461 FILLER_9_385
*462 FILLER_9_417
*463 FILLER_10_1
*464 FILLER_10_33
*465 FILLER_10_65
*466 FILLER_10_97
*467 FILLER_10_129
*468 FILLER_10_161
*469 FILLER_10_193
*470 FILLER_10_225
*471 FILLER_10_257
*472 FILLER_10_289
*473 FILLER_10_321
*474 FILLER_10_353
*475 FILLER_10_385
*476 FILLER_10_417
*477 FILLER_11_3
*478 FILLER_11_35
*479 FILLER_11_67
*480 FILLER_11_99
*481 FILLER_11_131
*482 FILLER_11_163
*483 FILLER_11_195
*484 FILLER_11_227
*485 FILLER_11_259
*486 FILLER_11_291
*487 FILLER_11_323
*488 FILLER_11_355
*489 FILLER_11_387
*490 FILLER_12_1
*491 FILLER_12_33
*492 FILLER_12_65
*493 FILLER_12_97
*494 FILLER_12_129
*495 FILLER_12_161
*496 FILLER_12_193
*497 FILLER_12_225
*498 FILLER_12_257
*499 FILLER_12_289
*500 FILLER_12_321
*501 FILLER_12_353
*502 FILLER_12_385
*503 FILLER_12_417
*504 FILLER_13_1
*505 FILLER_13_33
*506 FILLER_13_65
*507 FILLER_13_97
*508 FILLER_13_129
*509 FILLER_13_161
*510 FILLER_13_193
*511 FILLER_13_225
*512 FILLER_13_257
*513 FILLER_13_289
*514 FILLER_13_321
*515 FILLER_13_353
*516 FILLER_13_385
*517 FILLER_13_417
*518 FILLER_14_1
*519 FILLER_14_4
*520 FILLER_14_36
*521 FILLER_14_68
*522 FILLER_14_100
*523 FILLER_14_132
*524 FILLER_14_164
*525 FILLER_14_196
*526 FILLER_14_228
*527 FILLER_14_260
*528 FILLER_14_292
*529 FILLER_14_324
*530 FILLER_14_356
*531 FILLER_14_388
*532 FILLER_14_404
*533 FILLER_14_412
*534 FILLER_14_416
*535 FILLER_14_418
*536 FILLER_15_1
*537 FILLER_15_33
*538 FILLER_15_65
*539 FILLER_15_97
*540 FILLER_15_129
*541 FILLER_15_161
*542 FILLER_15_193
*543 FILLER_15_225
*544 FILLER_15_257
*545 FILLER_15_289
*546 FILLER_15_321
*547 FILLER_15_353
*548 FILLER_15_385
*549 FILLER_15_417
*550 FILLER_16_1
*551 FILLER_16_4
*552 FILLER_16_36
*553 FILLER_16_68
*554 FILLER_16_100
*555 FILLER_16_132
*556 FILLER_16_164
*557 FILLER_16_196
*558 FILLER_16_228
*559 FILLER_16_260
*560 FILLER_16_292
*561 FILLER_16_324
*562 FILLER_16_356
*563 FILLER_16_388
*564 FILLER_16_404
*565 FILLER_16_412
*566 FILLER_16_416
*567 FILLER_16_418
*568 FILLER_17_1
*569 FILLER_17_33
*570 FILLER_17_65
*571 FILLER_17_97
*572 FILLER_17_129
*573 FILLER_17_161
*574 FILLER_17_193
*575 FILLER_17_225
*576 FILLER_17_257
*577 FILLER_17_289
*578 FILLER_17_321
*579 FILLER_17_353
*580 FILLER_17_385
*581 FILLER_17_417
*582 FILLER_18_1
*583 FILLER_18_33
*584 FILLER_18_65
*585 FILLER_18_97
*586 FILLER_18_129
*587 FILLER_18_161
*588 FILLER_18_193
*589 FILLER_18_225
*590 FILLER_18_257
*591 FILLER_18_289
*592 FILLER_18_321
*593 FILLER_18_353
*594 FILLER_18_385
*595 FILLER_18_417
*596 FILLER_19_3
*597 FILLER_19_8
*598 FILLER_19_40
*599 FILLER_19_72
*600 FILLER_19_104
*601 FILLER_19_136
*602 FILLER_19_168
*603 FILLER_19_200
*604 FILLER_19_232
*605 FILLER_19_264
*606 FILLER_19_296
*607 FILLER_19_328
*608 FILLER_19_360
*609 FILLER_19_392
*610 FILLER_19_408
*611 FILLER_19_416
*612 FILLER_19_418
*613 FILLER_20_3
*614 FILLER_20_6
*615 FILLER_20_38
*616 FILLER_20_70
*617 FILLER_20_102
*618 FILLER_20_134
*619 FILLER_20_166
*620 FILLER_20_198
*621 FILLER_20_230
*622 FILLER_20_262
*623 FILLER_20_294
*624 FILLER_20_326
*625 FILLER_20_358
*626 FILLER_20_390
*627 FILLER_20_406
*628 FILLER_20_414
*629 FILLER_20_418
*630 FILLER_21_7
*631 FILLER_21_39
*632 FILLER_21_71
*633 FILLER_21_103
*634 FILLER_21_135
*635 FILLER_21_167
*636 FILLER_21_199
*637 FILLER_21_231
*638 FILLER_21_263
*639 FILLER_21_295
*640 FILLER_21_327
*641 FILLER_21_359
*642 FILLER_21_391
*643 FILLER_21_407
*644 FILLER_21_415
*645 FILLER_22_1
*646 FILLER_22_4
*647 FILLER_22_36
*648 FILLER_22_68
*649 FILLER_22_100
*650 FILLER_22_132
*651 FILLER_22_164
*652 FILLER_22_196
*653 FILLER_22_228
*654 FILLER_22_260
*655 FILLER_22_292
*656 FILLER_22_324
*657 FILLER_22_356
*658 FILLER_22_388
*659 FILLER_22_404
*660 FILLER_22_412
*661 FILLER_22_416
*662 FILLER_22_418
*663 FILLER_23_3
*664 FILLER_23_35
*665 FILLER_23_67
*666 FILLER_23_99
*667 FILLER_23_131
*668 FILLER_23_163
*669 FILLER_23_195
*670 FILLER_23_211
*671 FILLER_23_215
*672 FILLER_23_219
*673 FILLER_23_251
*674 FILLER_23_283
*675 FILLER_23_315
*676 FILLER_23_347
*677 FILLER_23_379
*678 FILLER_23_411
*679 FILLER_24_1
*680 FILLER_24_8
*681 FILLER_24_40
*682 FILLER_24_72
*683 FILLER_24_104
*684 FILLER_24_136
*685 FILLER_24_168
*686 FILLER_24_217
*687 FILLER_24_249
*688 FILLER_24_281
*689 FILLER_24_313
*690 FILLER_24_345
*691 FILLER_24_377
*692 FILLER_24_409
*693 FILLER_24_417
*694 FILLER_25_1
*695 FILLER_25_3
*696 FILLER_25_6
*697 FILLER_25_38
*698 FILLER_25_70
*699 FILLER_25_102
*700 FILLER_25_134
*701 FILLER_25_166
*702 FILLER_25_182
*703 FILLER_25_186
*704 FILLER_25_188
*705 FILLER_25_206
*706 FILLER_25_238
*707 FILLER_25_242
*708 FILLER_25_261
*709 FILLER_25_263
*710 FILLER_25_267
*711 FILLER_25_299
*712 FILLER_25_331
*713 FILLER_25_363
*714 FILLER_25_395
*715 FILLER_25_411
*716 FILLER_26_1
*717 FILLER_26_33
*718 FILLER_26_65
*719 FILLER_26_97
*720 FILLER_26_129
*721 FILLER_26_145
*722 FILLER_26_147
*723 FILLER_26_151
*724 FILLER_26_183
*725 FILLER_26_201
*726 FILLER_26_212
*727 FILLER_26_220
*728 FILLER_26_245
*729 FILLER_26_277
*730 FILLER_26_309
*731 FILLER_26_341
*732 FILLER_26_373
*733 FILLER_26_405
*734 FILLER_26_413
*735 FILLER_26_417
*736 FILLER_27_1
*737 FILLER_27_33
*738 FILLER_27_65
*739 FILLER_27_97
*740 FILLER_27_129
*741 FILLER_27_161
*742 FILLER_27_177
*743 FILLER_27_185
*744 FILLER_27_211
*745 FILLER_27_220
*746 FILLER_27_230
*747 FILLER_27_238
*748 FILLER_27_240
*749 FILLER_27_258
*750 FILLER_27_277
*751 FILLER_27_281
*752 FILLER_27_313
*753 FILLER_27_345
*754 FILLER_27_377
*755 FILLER_27_409
*756 FILLER_27_417
*757 FILLER_28_1
*758 FILLER_28_33
*759 FILLER_28_65
*760 FILLER_28_97
*761 FILLER_28_129
*762 FILLER_28_161
*763 FILLER_28_193
*764 FILLER_28_209
*765 FILLER_28_213
*766 FILLER_28_218
*767 FILLER_28_224
*768 FILLER_28_256
*769 FILLER_28_288
*770 FILLER_28_320
*771 FILLER_28_352
*772 FILLER_28_384
*773 FILLER_28_416
*774 FILLER_28_418
*775 FILLER_29_1
*776 FILLER_29_33
*777 FILLER_29_65
*778 FILLER_29_97
*779 FILLER_29_129
*780 FILLER_29_161
*781 FILLER_29_193
*782 FILLER_29_209
*783 FILLER_29_211
*784 FILLER_29_217
*785 FILLER_29_224
*786 FILLER_29_248
*787 FILLER_29_252
*788 FILLER_29_254
*789 FILLER_29_260
*790 FILLER_29_292
*791 FILLER_29_324
*792 FILLER_29_356
*793 FILLER_29_388
*794 FILLER_29_404
*795 FILLER_29_412
*796 FILLER_29_416
*797 FILLER_29_418
*798 FILLER_30_1
*799 FILLER_30_33
*800 FILLER_30_65
*801 FILLER_30_97
*802 FILLER_30_129
*803 FILLER_30_161
*804 FILLER_30_177
*805 FILLER_30_181
*806 FILLER_30_188
*807 FILLER_30_195
*808 FILLER_30_201
*809 FILLER_30_209
*810 FILLER_30_222
*811 FILLER_30_254
*812 FILLER_30_276
*813 FILLER_30_308
*814 FILLER_30_340
*815 FILLER_30_372
*816 FILLER_30_404
*817 FILLER_30_412
*818 FILLER_30_416
*819 FILLER_30_418
*820 FILLER_31_1
*821 FILLER_31_33
*822 FILLER_31_65
*823 FILLER_31_97
*824 FILLER_31_129
*825 FILLER_31_161
*826 FILLER_31_178
*827 FILLER_31_186
*828 FILLER_31_205
*829 FILLER_31_237
*830 FILLER_31_269
*831 FILLER_31_301
*832 FILLER_31_333
*833 FILLER_31_365
*834 FILLER_31_397
*835 FILLER_31_413
*836 FILLER_31_417
*837 FILLER_32_1
*838 FILLER_32_33
*839 FILLER_32_65
*840 FILLER_32_97
*841 FILLER_32_129
*842 FILLER_32_145
*843 FILLER_32_153
*844 FILLER_32_157
*845 FILLER_32_159
*846 FILLER_32_177
*847 FILLER_32_209
*848 FILLER_32_217
*849 FILLER_32_249
*850 FILLER_32_281
*851 FILLER_32_313
*852 FILLER_32_345
*853 FILLER_32_377
*854 FILLER_32_409
*855 FILLER_32_417
*856 FILLER_33_1
*857 FILLER_33_33
*858 FILLER_33_65
*859 FILLER_33_97
*860 FILLER_33_129
*861 FILLER_33_161
*862 FILLER_33_193
*863 FILLER_33_209
*864 FILLER_33_230
*865 FILLER_33_262
*866 FILLER_33_294
*867 FILLER_33_326
*868 FILLER_33_358
*869 FILLER_33_390
*870 FILLER_33_406
*871 FILLER_33_414
*872 FILLER_33_418
*873 FILLER_34_1
*874 FILLER_34_33
*875 FILLER_34_65
*876 FILLER_34_97
*877 FILLER_34_129
*878 FILLER_34_161
*879 FILLER_34_165
*880 FILLER_34_183
*881 FILLER_34_185
*882 FILLER_34_203
*883 FILLER_34_211
*884 FILLER_34_215
*885 FILLER_34_217
*886 FILLER_34_235
*887 FILLER_34_267
*888 FILLER_34_299
*889 FILLER_34_331
*890 FILLER_34_363
*891 FILLER_34_395
*892 FILLER_34_411
*893 FILLER_35_1
*894 FILLER_35_33
*895 FILLER_35_65
*896 FILLER_35_97
*897 FILLER_35_129
*898 FILLER_35_161
*899 FILLER_35_193
*900 FILLER_35_225
*901 FILLER_35_257
*902 FILLER_35_289
*903 FILLER_35_321
*904 FILLER_35_353
*905 FILLER_35_385
*906 FILLER_35_417
*907 FILLER_36_1
*908 FILLER_36_33
*909 FILLER_36_65
*910 FILLER_36_97
*911 FILLER_36_129
*912 FILLER_36_161
*913 FILLER_36_177
*914 FILLER_36_179
*915 FILLER_36_183
*916 FILLER_36_199
*917 FILLER_36_204
*918 FILLER_36_236
*919 FILLER_36_268
*920 FILLER_36_300
*921 FILLER_36_332
*922 FILLER_36_364
*923 FILLER_36_396
*924 FILLER_36_412
*925 FILLER_36_416
*926 FILLER_36_418
*927 FILLER_37_1
*928 FILLER_37_33
*929 FILLER_37_65
*930 FILLER_37_97
*931 FILLER_37_129
*932 FILLER_37_161
*933 FILLER_37_193
*934 FILLER_37_225
*935 FILLER_37_233
*936 FILLER_37_237
*937 FILLER_37_269
*938 FILLER_37_301
*939 FILLER_37_333
*940 FILLER_37_365
*941 FILLER_37_397
*942 FILLER_37_413
*943 FILLER_37_417
*944 FILLER_38_1
*945 FILLER_38_33
*946 FILLER_38_65
*947 FILLER_38_97
*948 FILLER_38_129
*949 FILLER_38_161
*950 FILLER_38_193
*951 FILLER_38_225
*952 FILLER_38_257
*953 FILLER_38_289
*954 FILLER_38_321
*955 FILLER_38_353
*956 FILLER_38_385
*957 FILLER_38_417
*958 FILLER_39_1
*959 FILLER_39_33
*960 FILLER_39_65
*961 FILLER_39_97
*962 FILLER_39_129
*963 FILLER_39_161
*964 FILLER_39_193
*965 FILLER_39_225
*966 FILLER_39_257
*967 FILLER_39_289
*968 FILLER_39_321
*969 FILLER_39_353
*970 FILLER_39_385
*971 FILLER_39_417
*972 FILLER_40_1
*973 FILLER_40_33
*974 FILLER_40_65
*975 FILLER_40_97
*976 FILLER_40_129
*977 FILLER_40_161
*978 FILLER_40_193
*979 FILLER_40_225
*980 FILLER_40_257
*981 FILLER_40_289
*982 FILLER_40_321
*983 FILLER_40_353
*984 FILLER_40_385
*985 FILLER_40_417
*986 FILLER_41_1
*987 FILLER_41_33
*988 FILLER_41_65
*989 FILLER_41_97
*990 FILLER_41_129
*991 FILLER_41_161
*992 FILLER_41_193
*993 FILLER_41_225
*994 FILLER_41_257
*995 FILLER_41_289
*996 FILLER_41_321
*997 FILLER_41_353
*998 FILLER_41_385
*999 FILLER_41_417
*1000 FILLER_42_1
*1001 FILLER_42_33
*1002 FILLER_42_65
*1003 FILLER_42_97
*1004 FILLER_42_129
*1005 FILLER_42_161
*1006 FILLER_42_193
*1007 FILLER_42_225
*1008 FILLER_42_257
*1009 FILLER_42_289
*1010 FILLER_42_321
*1011 FILLER_42_353
*1012 FILLER_42_385
*1013 FILLER_42_417
*1014 FILLER_43_1
*1015 FILLER_43_33
*1016 FILLER_43_65
*1017 FILLER_43_97
*1018 FILLER_43_129
*1019 FILLER_43_161
*1020 FILLER_43_193
*1021 FILLER_43_225
*1022 FILLER_43_257
*1023 FILLER_43_289
*1024 FILLER_43_321
*1025 FILLER_43_353
*1026 FILLER_43_385
*1027 FILLER_43_417
*1028 FILLER_44_1
*1029 FILLER_44_33
*1030 FILLER_44_65
*1031 FILLER_44_97
*1032 FILLER_44_129
*1033 FILLER_44_161
*1034 FILLER_44_193
*1035 FILLER_44_225
*1036 FILLER_44_257
*1037 FILLER_44_289
*1038 FILLER_44_321
*1039 FILLER_44_353
*1040 FILLER_44_385
*1041 FILLER_44_417
*1042 FILLER_45_1
*1043 FILLER_45_33
*1044 FILLER_45_65
*1045 FILLER_45_97
*1046 FILLER_45_129
*1047 FILLER_45_161
*1048 FILLER_45_193
*1049 FILLER_45_225
*1050 FILLER_45_257
*1051 FILLER_45_289
*1052 FILLER_45_321
*1053 FILLER_45_353
*1054 FILLER_45_385
*1055 FILLER_45_417
*1056 FILLER_46_1
*1057 FILLER_46_33
*1058 FILLER_46_65
*1059 FILLER_46_97
*1060 FILLER_46_129
*1061 FILLER_46_161
*1062 FILLER_46_193
*1063 FILLER_46_225
*1064 FILLER_46_257
*1065 FILLER_46_289
*1066 FILLER_46_321
*1067 FILLER_46_353
*1068 FILLER_46_385
*1069 FILLER_46_417
*1070 FILLER_47_1
*1071 FILLER_47_33
*1072 FILLER_47_65
*1073 FILLER_47_97
*1074 FILLER_47_129
*1075 FILLER_47_161
*1076 FILLER_47_193
*1077 FILLER_47_225
*1078 FILLER_47_257
*1079 FILLER_47_289
*1080 FILLER_47_321
*1081 FILLER_47_353
*1082 FILLER_47_385
*1083 FILLER_47_417
*1084 FILLER_48_1
*1085 FILLER_48_33
*1086 FILLER_48_65
*1087 FILLER_48_97
*1088 FILLER_48_129
*1089 FILLER_48_161
*1090 FILLER_48_193
*1091 FILLER_48_225
*1092 FILLER_48_257
*1093 FILLER_48_289
*1094 FILLER_48_321
*1095 FILLER_48_353
*1096 FILLER_48_385
*1097 FILLER_48_417
*1098 FILLER_49_1
*1099 FILLER_49_33
*1100 FILLER_49_65
*1101 FILLER_49_97
*1102 FILLER_49_129
*1103 FILLER_49_161
*1104 FILLER_49_193
*1105 FILLER_49_225
*1106 FILLER_49_257
*1107 FILLER_49_289
*1108 FILLER_49_321
*1109 FILLER_49_353
*1110 FILLER_49_385
*1111 FILLER_49_417
*1112 FILLER_50_1
*1113 FILLER_50_33
*1114 FILLER_50_65
*1115 FILLER_50_97
*1116 FILLER_50_129
*1117 FILLER_50_161
*1118 FILLER_50_193
*1119 FILLER_50_225
*1120 FILLER_50_257
*1121 FILLER_50_289
*1122 FILLER_50_321
*1123 FILLER_50_353
*1124 FILLER_50_385
*1125 FILLER_50_417
*1126 FILLER_51_1
*1127 FILLER_51_33
*1128 FILLER_51_65
*1129 FILLER_51_97
*1130 FILLER_51_129
*1131 FILLER_51_161
*1132 FILLER_51_193
*1133 FILLER_51_225
*1134 FILLER_51_257
*1135 FILLER_51_289
*1136 FILLER_51_321
*1137 FILLER_51_353
*1138 FILLER_51_385
*1139 FILLER_51_417
*1140 FILLER_52_1
*1141 FILLER_52_33
*1142 FILLER_52_65
*1143 FILLER_52_97
*1144 FILLER_52_129
*1145 FILLER_52_161
*1146 FILLER_52_193
*1147 FILLER_52_225
*1148 FILLER_52_257
*1149 FILLER_52_289
*1150 FILLER_52_321
*1151 FILLER_52_353
*1152 FILLER_52_385
*1153 FILLER_52_417
*1154 FILLER_53_1
*1155 FILLER_53_33
*1156 FILLER_53_65
*1157 FILLER_53_97
*1158 FILLER_53_129
*1159 FILLER_53_161
*1160 FILLER_53_193
*1161 FILLER_53_225
*1162 FILLER_53_257
*1163 FILLER_53_289
*1164 FILLER_53_321
*1165 FILLER_53_353
*1166 FILLER_53_385
*1167 FILLER_53_417
*1168 FILLER_54_1
*1169 FILLER_54_33
*1170 FILLER_54_65
*1171 FILLER_54_97
*1172 FILLER_54_129
*1173 FILLER_54_161
*1174 FILLER_54_193
*1175 FILLER_54_225
*1176 FILLER_54_257
*1177 FILLER_54_289
*1178 FILLER_54_321
*1179 FILLER_54_353
*1180 FILLER_54_385
*1181 FILLER_54_417
*1182 FILLER_55_1
*1183 FILLER_55_33
*1184 FILLER_55_65
*1185 FILLER_55_97
*1186 FILLER_55_129
*1187 FILLER_55_161
*1188 FILLER_55_193
*1189 FILLER_55_225
*1190 FILLER_55_257
*1191 FILLER_55_289
*1192 FILLER_55_321
*1193 FILLER_55_353
*1194 FILLER_55_385
*1195 FILLER_55_417

*PORTS
clk I
obs_tag[0] O
obs_tag[1] O
obs_tag[2] O
obs_tag[3] O
obs_tag[4] O
obs_tag[5] O
obs_tag[6] O
obs_tag[7] O
obs_valid O
obs_y[0] O
obs_y[10] O
obs_y[11] O
obs_y[12] O
obs_y[13] O
obs_y[14] O
obs_y[15] O
obs_y[16] O
obs_y[17] O
obs_y[18] O
obs_y[19] O
obs_y[1] O
obs_y[20] O
obs_y[21] O
obs_y[22] O
obs_y[23] O
obs_y[24] O
obs_y[25] O
obs_y[26] O
obs_y[27] O
obs_y[28] O
obs_y[29] O
obs_y[2] O
obs_y[30] O
obs_y[31] O
obs_y[3] O
obs_y[4] O
obs_y[5] O
obs_y[6] O
obs_y[7] O
obs_y[8] O
obs_y[9] O

*D_NET *1 7.48486e-05
*CONN
*I *169:D I *D DFF_X1
*I *130:Z O *D XOR2_X1
*CAP
1 *169:D 2.37029e-05
2 *130:Z 2.37029e-05
3 *169:D *79:8 2.74429e-05
*RES
1 *130:Z *169:D 23.6429 
*END

*D_NET *2 8.05763e-05
*CONN
*I *170:D I *D DFF_X1
*I *129:ZN O *D XNOR2_X1
*CAP
1 *170:D 2.74975e-05
2 *129:ZN 2.74975e-05
3 *170:D *178:D 1.64551e-05
4 *170:D *107:50 7.90853e-06
5 *170:D *107:54 1.21774e-06
*RES
1 *129:ZN *170:D 13.75 
*END

*D_NET *3 0.000116374
*CONN
*I *171:D I *D DFF_X1
*I *128:ZN O *D XNOR2_X1
*CAP
1 *171:D 5.40356e-05
2 *128:ZN 5.40356e-05
3 *171:D *106:20 8.30282e-06
*RES
1 *128:ZN *171:D 15.8571 
*END

*D_NET *4 0.000369749
*CONN
*I *172:D I *D DFF_X1
*I *126:ZN O *D XNOR2_X1
*CAP
1 *172:D 7.87934e-05
2 *126:ZN 7.87934e-05
3 *172:D *7:12 0
4 *172:D *82:8 0.000212162
5 *172:D *82:14 0
*RES
1 *126:ZN *172:D 32.3571 
*END

*D_NET *5 0.000210019
*CONN
*I *173:D I *D DFF_X1
*I *124:ZN O *D XNOR2_X1
*CAP
1 *173:D 3.56895e-05
2 *124:ZN 3.56895e-05
3 *173:D *124:A 0
4 *173:D *173:CK 1.28122e-06
5 *173:D *83:14 6.86795e-05
6 *173:D *106:20 6.86795e-05
*RES
1 *124:ZN *173:D 26.1429 
*END

*D_NET *6 0.000236743
*CONN
*I *174:D I *D DFF_X1
*I *121:Z O *D XOR2_X2
*CAP
1 *174:D 0.000118371
2 *121:Z 0.000118371
3 *174:D *121:A 0
4 *174:D *174:CK 0
5 *174:D *84:10 0
*RES
1 *121:Z *174:D 32.1429 
*END

*D_NET *7 0.000545014
*CONN
*I *130:B I *D XOR2_X1
*I *127:A3 I *D NAND3_X1
*I *123:A3 I *D NAND4_X1
*I *131:CO O *D HA_X1
*CAP
1 *130:B 2.14958e-05
2 *127:A3 4.54387e-05
3 *123:A3 0
4 *131:CO 5.31094e-05
5 *7:12 0.00012113
6 *7:8 0.000150296
7 *127:A3 *123:A1 4.18985e-05
8 *127:A3 *123:A4 2.39679e-06
9 *127:A3 *125:A1 0
10 *127:A3 *125:A4 8.43215e-07
11 *127:A3 *82:14 7.19036e-06
12 *130:B *126:B 0
13 *130:B *79:14 1.20697e-05
14 *7:8 *118:A2 0
15 *7:8 *125:A1 0
16 *7:8 *125:A3 1.55581e-05
17 *7:8 *126:B 0
18 *7:8 *79:14 9.5257e-06
19 *7:12 *125:A4 1.53342e-05
20 *7:12 *79:14 8.56032e-06
21 *7:12 *79:29 6.48216e-07
22 *7:12 *79:36 4.32144e-07
23 *7:12 *82:14 3.90865e-05
24 *172:D *7:12 0
*RES
1 *131:CO *7:8 16.3571 
2 *7:8 *7:12 13.75 
3 *7:12 *123:A3 5 
4 *7:12 *127:A3 20.0714 
5 *7:8 *130:B 12.9643 
*END

*D_NET *9 0.000554194
*CONN
*I *120:A1 I *D NOR2_X2
*I *129:B I *D XNOR2_X1
*I *118:ZN O *D NAND3_X2
*CAP
1 *120:A1 0
2 *129:B 5.20341e-05
3 *118:ZN 0.000162506
4 *9:10 0.00021454
5 *129:B *129:A 1.41787e-05
6 *129:B *178:D 7.19036e-06
7 *129:B *80:12 3.60147e-05
8 *129:B *107:12 1.28122e-06
9 *9:10 *120:A2 5.62244e-05
10 *9:10 *122:A1 0
11 *9:10 *127:A2 0
12 *9:10 *80:12 1.02238e-05
13 *9:10 *107:12 0
*RES
1 *118:ZN *9:10 27.5714 
2 *9:10 *129:B 16.75 
3 *9:10 *120:A1 10 
*END

*D_NET *10 0.000321007
*CONN
*I *120:A2 I *D NOR2_X2
*I *119:ZN O *D NAND4_X2
*CAP
1 *120:A2 4.59269e-05
2 *119:ZN 4.59269e-05
3 *120:A2 *80:12 5.67661e-05
4 *120:A2 *80:32 0.000116162
5 *9:10 *120:A2 5.62244e-05
*RES
1 *119:ZN *120:A2 29.0714 
*END

*D_NET *11 0.000557171
*CONN
*I *121:B I *D XOR2_X2
*I *120:ZN O *D NOR2_X2
*CAP
1 *121:B 0.000170523
2 *120:ZN 0.000170523
3 *121:B *80:12 9.36292e-05
4 *121:B *107:10 0.000106622
5 *121:B *108:45 1.58738e-05
*RES
1 *120:ZN *121:B 42.1429 
*END

*D_NET *12 0.000390865
*CONN
*I *123:A4 I *D NAND4_X1
*I *125:A4 I *D NAND4_X1
*I *122:ZN O *D AND2_X2
*CAP
1 *123:A4 9.35311e-06
2 *125:A4 4.77408e-05
3 *122:ZN 4.04757e-05
4 *12:14 9.75697e-05
5 *123:A4 *119:A2 1.37792e-05
6 *125:A4 *125:A1 4.21902e-05
7 *125:A4 *127:A1 7.19036e-06
8 *125:A4 *127:A2 4.69702e-07
9 *125:A4 *79:36 3.85541e-05
10 *12:14 *119:A2 1.01488e-05
11 *12:14 *127:A1 7.89897e-06
12 *12:14 *127:A2 2.96695e-05
13 *12:14 *128:B 2.62045e-05
14 *12:14 *80:36 1.04584e-06
15 *127:A3 *123:A4 2.39679e-06
16 *127:A3 *125:A4 8.43215e-07
17 *7:12 *125:A4 1.53342e-05
*RES
1 *122:ZN *12:14 11.7857 
2 *12:14 *125:A4 22.0357 
3 *12:14 *123:A4 6.67857 
*END

*D_NET *13 0.000135811
*CONN
*I *124:B I *D XNOR2_X1
*I *123:ZN O *D NAND4_X1
*CAP
1 *124:B 6.50306e-05
2 *123:ZN 6.50306e-05
3 *124:B *119:A2 5.74951e-06
4 *124:B *106:20 0
*RES
1 *123:ZN *124:B 16.8929 
*END

*D_NET *14 0.00011643
*CONN
*I *126:B I *D XNOR2_X1
*I *125:ZN O *D NAND4_X1
*CAP
1 *126:B 4.66178e-05
2 *125:ZN 4.66178e-05
3 *126:B *123:A1 0
4 *126:B *125:A1 6.99525e-06
5 *126:B *82:8 3.01743e-06
6 *126:B *82:14 1.31814e-05
7 *130:B *126:B 0
8 *7:8 *126:B 0
*RES
1 *125:ZN *126:B 25.6786 
*END

*D_NET *15 0.000585463
*CONN
*I *128:B I *D XNOR2_X1
*I *127:ZN O *D NAND3_X1
*CAP
1 *128:B 0.000161045
2 *127:ZN 0.000161045
3 *128:B *119:A1 2.06353e-05
4 *128:B *119:A2 6.18234e-05
5 *128:B *122:A1 1.02719e-06
6 *128:B *127:A2 3.50308e-06
7 *128:B *128:A 9.11083e-05
8 *128:B *80:32 8.43429e-06
9 *128:B *80:36 5.06369e-05
10 *128:B *106:20 0
11 *128:B *108:45 0
12 *12:14 *128:B 2.62045e-05
*RES
1 *127:ZN *128:B 32.9643 
*END

*D_NET *16 0.00014294
*CONN
*I *167:D I *D DFF_X1
*I *167:QN O *D DFF_X1
*CAP
1 *167:D 7.14701e-05
2 *167:QN 7.14701e-05
*RES
1 *167:QN *167:D 27.0357 
*END

*D_NET *17 0.000204426
*CONN
*I *168:D I *D DFF_X1
*I *131:S O *D HA_X1
*CAP
1 *168:D 9.88787e-05
2 *131:S 9.88787e-05
3 *168:D *175:D 0
4 *168:D *176:D 2.83434e-06
5 *168:D *78:17 3.83453e-06
6 *168:D *107:30 0
*RES
1 *131:S *168:D 30.1071 
*END

*D_NET *35 0.00431402
*CONN
*P clk I
*I *158:A I *D CLKBUF_X3
*CAP
1 clk 0.000540916
2 *158:A 0
3 *35:18 0.000314665
4 *35:10 0.00161305
5 *35:8 0.0018393
6 *35:18 *119:A4 6.08377e-06
*RES
1 clk *35:8 23.2275 
2 *35:8 *35:10 55.8375 
3 *35:10 *35:18 20.3214 
4 *35:18 *158:A 10 
*END

*D_NET *36 0.000758849
*CONN
*I *166:A I *D BUF_X1
*I *175:Q O *D DFF_X1
*CAP
1 *166:A 0
2 *175:Q 0.000299727
3 *36:8 0.000299727
4 *36:8 *175:D 0.000159394
5 *36:8 *116:14 0
*RES
1 *175:Q *36:8 45.5357 
2 *36:8 *166:A 10 
*END

*D_NET *37 7.68301e-05
*CONN
*I *165:A I *D BUF_X1
*I *176:Q O *D DFF_X1
*CAP
1 *165:A 3.8415e-05
2 *176:Q 3.8415e-05
*RES
1 *176:Q *165:A 13.75 
*END

*D_NET *38 5.17367e-05
*CONN
*I *164:A I *D BUF_X1
*I *177:Q O *D DFF_X1
*CAP
1 *164:A 2.58684e-05
2 *177:Q 2.58684e-05
*RES
1 *177:Q *164:A 22.9643 
*END

*D_NET *39 0.000194545
*CONN
*I *163:A I *D BUF_X1
*I *178:Q O *D DFF_X1
*CAP
1 *163:A 9.72723e-05
2 *178:Q 9.72723e-05
*RES
1 *178:Q *163:A 19.6786 
*END

*D_NET *40 0.00028679
*CONN
*I *162:A I *D BUF_X1
*I *179:Q O *D DFF_X1
*CAP
1 *162:A 0.000143395
2 *179:Q 0.000143395
*RES
1 *179:Q *162:A 24.25 
*END

*D_NET *41 3.01606e-05
*CONN
*I *161:A I *D BUF_X1
*I *180:Q O *D DFF_X1
*CAP
1 *161:A 1.50803e-05
2 *180:Q 1.50803e-05
*RES
1 *180:Q *161:A 11.6071 
*END

*D_NET *42 1.74261e-05
*CONN
*I *160:A I *D BUF_X1
*I *181:Q O *D DFF_X1
*CAP
1 *160:A 8.71307e-06
2 *181:Q 8.71307e-06
*RES
1 *181:Q *160:A 10.9286 
*END

*D_NET *43 0.000207279
*CONN
*I *159:A I *D BUF_X1
*I *182:Q O *D DFF_X1